Version 4
SHEET 1 880 680
WIRE 32 -16 -16 -16
WIRE 176 -16 112 -16
WIRE 256 32 80 32
WIRE 80 96 80 32
WIRE -16 112 -16 -16
WIRE 48 112 -16 112
WIRE 256 112 256 32
WIRE 176 128 176 -16
WIRE 176 128 112 128
WIRE -208 144 -256 144
WIRE -112 144 -128 144
WIRE -96 144 -112 144
WIRE 16 144 -16 144
WIRE 48 144 16 144
WIRE -256 192 -256 144
WIRE 16 192 16 144
WIRE 16 192 -80 192
WIRE 256 224 256 192
WIRE 336 224 256 224
WIRE -112 240 -112 144
WIRE -80 240 -80 192
WIRE -80 240 -112 240
WIRE 176 240 176 128
WIRE 176 240 -16 240
WIRE 256 240 256 224
WIRE 336 256 336 224
WIRE -80 304 -80 240
WIRE -80 304 -96 304
WIRE 80 352 80 160
WIRE 256 352 256 320
WIRE 256 352 80 352
FLAG -256 272 0
FLAG -96 368 0
FLAG 336 256 0
SYMBOL voltage 256 96 R0
SYMATTR InstName V1
SYMATTR Value 12V
SYMBOL voltage 256 224 R0
SYMATTR InstName V2
SYMATTR Value 12V
SYMBOL voltage -256 176 R0
WINDOW 123 24 124 Left 2
WINDOW 39 0 0 Left 0
SYMATTR Value2 AC ac
SYMATTR InstName V3
SYMATTR Value ""
SYMBOL res 0 128 R90
WINDOW 0 0 56 VBottom 2
WINDOW 3 32 56 VTop 2
SYMATTR InstName R1
SYMATTR Value 1.2k
SYMBOL res -112 128 R90
WINDOW 0 0 56 VBottom 2
WINDOW 3 46 47 VRight 2
SYMATTR InstName R2
SYMATTR Value 1.2k
SYMBOL cap -16 224 R90
WINDOW 0 0 32 VBottom 2
WINDOW 3 32 32 VTop 2
SYMATTR InstName C1
SYMATTR Value 33nF
SYMBOL cap -80 368 R180
WINDOW 0 24 56 Left 2
WINDOW 3 24 8 Left 2
SYMATTR InstName C2
SYMATTR Value 33nF
SYMBOL OpAmps\\UniversalOpAmp 80 128 R0
SYMATTR InstName U1
SYMBOL res 128 -32 R90
WINDOW 0 0 56 VBottom 2
WINDOW 3 32 56 VTop 2
SYMATTR InstName R3
SYMATTR Value 4.7k
TEXT -160 -80 Left 2 ;Active Low pass filter
TEXT -416 368 Left 2 !.ac dec 100 1 1meg
